<?xml version="1.0" encoding="UTF-8"?>

<!-- generated on 2022-11-17 16:19:52 by Eclipse SUMO netedit Version 1.15.0
<configuration>

    <output>
        <output-file value="C:\Users\Longct\OneDrive\PyCharm\ComPPO\car_str_16.net.xml"/>
    </output>

    <processing>
        <offset.disable-normalization value="true"/>
    </processing>

    <junctions>
        <no-turnarounds value="true"/>
    </junctions>

    <netedit>
        <route-files value="C:\Users\Longct\OneDrive\PyCharm\ComPPO\car_str_16.rou.xml"/>
    </netedit>

</configuration>
-->

<net version="1.9" junctionCornerDetail="5" limitTurnSpeed="5.50" >

    <location netOffset="0.00,0.00" convBoundary="-1000.00,0.00,2500.00,0.00" origBoundary="10000000000.00,10000000000.00,-10000000000.00,-10000000000.00" projParameter="!"/>

    <edge id="E0" from="J0" to="J1" priority="-1">
        <lane id="E0_0" index="0" speed="25.00" length="3500.00" shape="-1000.00,-1.60 2500.00,-1.60"/>
    </edge>

    <junction id="J0" type="dead_end" x="-1000.00" y="0.00" incLanes="" intLanes="" shape="-1000.00,0.00 -1000.00,-3.20"/>
    <junction id="J1" type="dead_end" x="2500.00" y="0.00" incLanes="E0_0" intLanes="" shape="2500.00,-3.20 2500.00,0.00"/>

</net>
